<?xml version="1.0" encoding="UTF-8"?>

<!-- generated on 2026-03-27 16:59:08 by Eclipse SUMO netedit Version 1.24.0
<neteditConfiguration xmlns:xsi="http://www.w3.org/2001/XMLSchema-instance" xsi:noNamespaceSchemaLocation="http://sumo.dlr.de/xsd/neteditConfiguration.xsd">

    <input>
        <sumocfg-file value="F:\IIT BICHHU\Driving Simulators\SUMO2Unity-main github\SUMO2Unity-main\Scenario1\Sumo2Unity.sumocfg"/>
        <additional-files value="F:\IIT BICHHU\Driving Simulators\SUMO2Unity-main github\SUMO2Unity-main\Scenario1\Sumo2Unity.Poly.xml.add.xml"/>
        <route-files value="F:\IIT BICHHU\Driving Simulators\SUMO2Unity-main github\SUMO2Unity-main\Scenario1\Sumo2Unity.rou.xml"/>
        <sumo-net-file value="F:\IIT BICHHU\Driving Simulators\SUMO2Unity-main github\SUMO2Unity-main\Scenario1\Sumo2Unity.net.xml"/>
    </input>

    <output>
        <output-file value="F:\IIT BICHHU\Driving Simulators\SUMO2Unity-main github\SUMO2Unity-main\Scenario1\Sumo2Unity.net.xml"/>
    </output>

    <processing>
        <geometry.min-radius.fix.railways value="false"/>
        <geometry.avoid-overlap value="false"/>
        <geometry.max-grade.fix value="false"/>
        <offset.disable-normalization value="true"/>
        <lefthand value="0"/>
    </processing>

    <junctions>
        <no-internal-links value="false"/>
        <no-turnarounds value="true"/>
        <junctions.corner-detail value="5"/>
        <junctions.limit-turn-speed value="5.50"/>
        <rectangular-lane-cut value="0"/>
    </junctions>

    <pedestrian>
        <walkingareas value="true"/>
    </pedestrian>

    <netedit>
        <new-network value="false"/>
        <ignore.additionalelements value="0"/>
        <ignore.routeelements value="0"/>
    </netedit>

</neteditConfiguration>
-->

<net version="1.20" junctionCornerDetail="5" walkingareas="true" limitTurnSpeed="5.50" avoidOverlap="0" xmlns:xsi="http://www.w3.org/2001/XMLSchema-instance" xsi:noNamespaceSchemaLocation="http://sumo.dlr.de/xsd/net_file.xsd">

    <location netOffset="0.00,0.00" convBoundary="-98.62,-81.66,194.28,11.37" origBoundary="-10000000000.00,-10000000000.00,10000000000.00,10000000000.00" projParameter="!"/>

    <edge id=":J0_w0" function="walkingarea">
        <lane id=":J0_w0_0" index="0" allow="pedestrian" speed="2.78" length="8.40" width="2.00" shape="-98.62,8.17 -98.62,6.17 -98.62,16.57 -98.62,14.57"/>
    </edge>
    <edge id=":J1_0" function="internal">
        <lane id=":J1_0_0" index="0" disallow="pedestrian" speed="13.89" length="14.40" shape="68.82,12.97 54.42,12.97"/>
    </edge>
    <edge id=":J1_1" function="internal">
        <lane id=":J1_1_0" index="0" disallow="pedestrian" speed="8.01" length="4.06" shape="68.82,12.97 64.98,12.42 64.83,12.33"/>
    </edge>
    <edge id=":J1_6" function="internal">
        <lane id=":J1_6_0" index="0" disallow="pedestrian" speed="8.01" length="10.14" shape="64.83,12.33 62.23,10.77 60.58,8.01 60.02,4.16"/>
    </edge>
    <edge id=":J1_2" function="internal">
        <lane id=":J1_2_0" index="0" disallow="pedestrian" speed="6.52" length="9.05" shape="63.22,4.15 63.57,6.61 64.63,8.36 66.38,9.42 68.82,9.77"/>
    </edge>
    <edge id=":J1_3" function="internal">
        <lane id=":J1_3_0" index="0" disallow="pedestrian" speed="8.00" length="14.21" shape="63.22,4.15 62.68,8.01 61.03,10.76 58.28,12.42 54.42,12.97"/>
    </edge>
    <edge id=":J1_4" function="internal">
        <lane id=":J1_4_0" index="0" disallow="pedestrian" speed="6.50" length="4.76" shape="54.42,9.77 56.88,9.42 58.63,8.37 58.75,8.16"/>
    </edge>
    <edge id=":J1_5" function="internal">
        <lane id=":J1_5_0" index="0" disallow="pedestrian" speed="13.89" length="14.40" shape="54.42,9.77 68.82,9.77"/>
    </edge>
    <edge id=":J1_7" function="internal">
        <lane id=":J1_7_0" index="0" disallow="pedestrian" speed="6.50" length="4.28" shape="58.75,8.16 59.67,6.61 60.02,4.16"/>
    </edge>
    <edge id=":J1_c0" function="crossing" crossingEdges="E1 -E1">
        <lane id=":J1_c0_0" index="0" allow="pedestrian" speed="2.78" length="6.40" width="4.00" shape="66.82,8.17 66.82,14.57" outlineShape="68.82,8.07 68.82,14.67 64.82,14.57 64.82,4.17 64.93,5.37 65.27,6.38 65.82,7.16 66.60,7.72 67.60,8.06"/>
    </edge>
    <edge id=":J1_c1" function="crossing" crossingEdges="-E4 E4">
        <lane id=":J1_c1_0" index="0" allow="pedestrian" speed="2.78" length="6.40" width="4.00" shape="58.42,6.16 64.82,6.14" outlineShape="58.42,4.16 64.82,4.14 64.93,5.37 65.27,6.38 65.82,7.16 66.60,7.72 66.93,7.83 64.83,8.14 58.43,8.16 56.32,7.83 56.65,7.72 57.42,7.17 57.98,6.39 58.31,5.39"/>
    </edge>
    <edge id=":J1_c2" function="crossing" crossingEdges="-E0 E0">
        <lane id=":J1_c2_0" index="0" allow="pedestrian" speed="2.78" length="6.40" width="4.00" shape="56.42,14.57 56.42,8.17" outlineShape="54.42,14.67 54.42,8.07 55.65,8.06 56.65,7.72 57.42,7.17 57.98,6.39 58.09,6.06 58.42,8.17 58.42,14.57"/>
    </edge>
    <edge id=":J1_w0" function="walkingarea">
        <lane id=":J1_w0_0" index="0" allow="pedestrian" speed="2.78" length="9.03" width="4.00" shape="58.42,14.57 54.42,14.57 54.42,16.57 68.82,16.57 68.82,14.57 64.82,14.57"/>
    </edge>
    <edge id=":J1_w1" function="walkingarea">
        <lane id=":J1_w1_0" index="0" allow="pedestrian" speed="2.78" length="3.31" width="4.00" shape="68.82,8.17 68.82,6.17 66.82,4.14 64.82,4.14 64.93,5.37 65.27,6.38 65.82,7.16 66.60,7.72 67.60,8.06"/>
    </edge>
    <edge id=":J1_w2" function="walkingarea">
        <lane id=":J1_w2_0" index="0" allow="pedestrian" speed="2.78" length="3.30" width="4.00" shape="58.42,4.16 56.42,4.17 54.42,6.17 54.42,8.17 55.65,8.06 56.65,7.72 57.42,7.17 57.98,6.39 58.31,5.39"/>
    </edge>
    <edge id=":J2_0" function="internal">
        <lane id=":J2_0_0" index="0" disallow="pedestrian" speed="7.10" length="10.97" shape="195.88,6.17 195.45,9.15 194.18,11.27 192.06,12.54 189.08,12.97"/>
    </edge>
    <edge id=":J2_1" function="internal">
        <lane id=":J2_1_0" index="0" disallow="pedestrian" speed="5.37" length="5.81" shape="189.08,9.77 190.66,9.54 191.78,8.87 192.45,7.75 192.68,6.17"/>
    </edge>
    <edge id=":J2_w0" function="walkingarea">
        <lane id=":J2_w0_0" index="0" allow="pedestrian" speed="2.78" length="13.29" width="2.00" shape="189.08,14.57 189.08,16.57 192.26,16.28 194.86,15.41 196.88,13.97 198.32,11.95 199.19,9.35 199.48,6.17 197.48,6.17 197.25,8.74 196.55,10.84 195.38,12.47 193.75,13.64 191.65,14.34"/>
    </edge>
    <edge id=":J2_w1" function="walkingarea">
        <lane id=":J2_w1_0" index="0" allow="pedestrian" speed="2.78" length="1.41" width="2.00" shape="191.08,6.17 189.08,6.17 189.08,8.17 189.69,8.11 190.19,7.95 190.58,7.67 190.86,7.28 191.02,6.78"/>
    </edge>
    <edge id=":J3_0" function="internal">
        <lane id=":J3_0_0" index="0" disallow="pedestrian" speed="5.37" length="5.80" shape="192.68,-76.16 192.46,-77.73 191.78,-78.86 190.66,-79.53 189.09,-79.76"/>
    </edge>
    <edge id=":J3_1" function="internal">
        <lane id=":J3_1_0" index="0" disallow="pedestrian" speed="7.11" length="10.95" shape="189.10,-82.96 192.06,-82.53 194.18,-81.25 195.46,-79.13 195.88,-76.16"/>
    </edge>
    <edge id=":J3_w0" function="walkingarea">
        <lane id=":J3_w0_0" index="0" allow="pedestrian" speed="2.78" length="1.41" width="2.00" shape="189.08,-78.16 189.08,-76.16 191.08,-76.16 191.02,-76.77 190.86,-77.27 190.58,-77.66 190.19,-77.94 189.69,-78.11"/>
    </edge>
    <edge id=":J3_w1" function="walkingarea">
        <lane id=":J3_w1_0" index="0" allow="pedestrian" speed="2.78" length="13.28" width="2.00" shape="197.48,-76.16 199.48,-76.16 199.19,-79.33 198.33,-81.93 196.89,-83.95 194.87,-85.40 192.27,-86.27 189.10,-86.56 189.10,-84.56 191.66,-84.32 193.76,-83.62 195.38,-82.45 196.55,-80.82 197.25,-78.72"/>
    </edge>
    <edge id=":J4_0" function="internal">
        <lane id=":J4_0_0" index="0" disallow="pedestrian" speed="7.10" length="11.01" shape="59.76,-76.43 60.17,-79.42 61.45,-81.55 63.58,-82.83 66.57,-83.25"/>
    </edge>
    <edge id=":J4_1" function="internal">
        <lane id=":J4_1_0" index="0" disallow="pedestrian" speed="5.37" length="5.83" shape="66.57,-80.05 64.98,-79.83 63.85,-79.15 63.18,-78.02 62.96,-76.44"/>
    </edge>
    <edge id=":J4_w0" function="walkingarea">
        <lane id=":J4_w0_0" index="0" allow="pedestrian" speed="2.78" length="13.33" width="2.00" shape="66.58,-84.85 66.58,-86.85 63.39,-86.56 60.77,-85.70 58.75,-84.25 57.30,-82.22 56.44,-79.61 56.16,-76.41 58.16,-76.42 58.38,-79.00 59.08,-81.11 60.25,-82.75 61.89,-83.92 64.00,-84.62"/>
    </edge>
    <edge id=":J4_w1" function="walkingarea">
        <lane id=":J4_w1_0" index="0" allow="pedestrian" speed="2.78" length="1.42" width="2.00" shape="64.56,-76.44 66.56,-76.45 66.56,-78.45 65.95,-78.39 65.44,-78.23 65.05,-77.95 64.78,-77.56 64.61,-77.06"/>
    </edge>

    <edge id="-E0" from="J1" to="J0" priority="-1">
        <lane id="-E0_0" index="0" allow="pedestrian" speed="13.89" length="153.04" width="2.00" shape="54.42,15.57 -98.62,15.57"/>
        <lane id="-E0_1" index="1" disallow="pedestrian" speed="13.89" length="153.04" shape="54.42,12.97 -98.62,12.97"/>
    </edge>
    <edge id="-E1" from="J2" to="J1" priority="-1">
        <lane id="-E1_0" index="0" allow="pedestrian" speed="13.89" length="120.26" width="2.00" shape="189.08,15.57 68.82,15.57"/>
        <lane id="-E1_1" index="1" disallow="pedestrian" speed="13.89" length="120.26" shape="189.08,12.97 68.82,12.97"/>
    </edge>
    <edge id="-E2" from="J3" to="J2" priority="-1">
        <lane id="-E2_0" index="0" allow="pedestrian" speed="13.89" length="82.33" width="2.00" shape="198.48,-76.16 198.48,6.17"/>
        <lane id="-E2_1" index="1" disallow="pedestrian" speed="13.89" length="82.33" shape="195.88,-76.16 195.88,6.17"/>
    </edge>
    <edge id="-E3" from="J4" to="J3" priority="-1">
        <lane id="-E3_0" index="0" allow="pedestrian" speed="13.89" length="122.52" width="2.00" shape="66.58,-85.85 189.10,-85.56"/>
        <lane id="-E3_1" index="1" disallow="pedestrian" speed="13.89" length="122.52" shape="66.57,-83.25 189.10,-82.96"/>
    </edge>
    <edge id="-E4" from="J1" to="J4" priority="-1">
        <lane id="-E4_0" index="0" allow="pedestrian" speed="13.89" length="80.58" width="2.00" shape="57.42,4.17 57.16,-76.42"/>
        <lane id="-E4_1" index="1" disallow="pedestrian" speed="13.89" length="80.58" shape="60.02,4.16 59.76,-76.43"/>
    </edge>
    <edge id="E0" from="J0" to="J1" priority="-1">
        <lane id="E0_0" index="0" allow="pedestrian" speed="13.89" length="153.04" width="2.00" shape="-98.62,7.17 54.42,7.17"/>
        <lane id="E0_1" index="1" disallow="pedestrian" speed="13.89" length="153.04" shape="-98.62,9.77 54.42,9.77"/>
    </edge>
    <edge id="E1" from="J1" to="J2" priority="-1">
        <lane id="E1_0" index="0" allow="pedestrian" speed="13.89" length="120.26" width="2.00" shape="68.82,7.17 189.08,7.17"/>
        <lane id="E1_1" index="1" disallow="pedestrian" speed="13.89" length="120.26" shape="68.82,9.77 189.08,9.77"/>
    </edge>
    <edge id="E2" from="J2" to="J3" priority="-1">
        <lane id="E2_0" index="0" allow="pedestrian" speed="13.89" length="82.33" width="2.00" shape="190.08,6.17 190.08,-76.16"/>
        <lane id="E2_1" index="1" disallow="pedestrian" speed="13.89" length="82.33" shape="192.68,6.17 192.68,-76.16"/>
    </edge>
    <edge id="E3" from="J3" to="J4" priority="-1">
        <lane id="E3_0" index="0" allow="pedestrian" speed="13.89" length="122.52" width="2.00" shape="189.08,-77.16 66.56,-77.45"/>
        <lane id="E3_1" index="1" disallow="pedestrian" speed="13.89" length="122.52" shape="189.09,-79.76 66.57,-80.05"/>
    </edge>
    <edge id="E4" from="J4" to="J1" priority="-1">
        <lane id="E4_0" index="0" allow="pedestrian" speed="13.89" length="80.58" width="2.00" shape="65.56,-76.44 65.82,4.14"/>
        <lane id="E4_1" index="1" disallow="pedestrian" speed="13.89" length="80.58" shape="62.96,-76.44 63.22,4.15"/>
    </edge>

    <junction id="J0" type="dead_end" x="-98.62" y="11.37" incLanes="-E0_0 -E0_1" intLanes="" shape="-98.62,11.37 -98.62,16.57 -98.62,11.37"/>
    <junction id="J1" type="priority" x="61.64" y="11.37" incLanes="-E1_0 -E1_1 E4_0 E4_1 E0_0 E0_1 :J1_w1_0 :J1_w2_0 :J1_w0_0" intLanes=":J1_0_0 :J1_6_0 :J1_2_0 :J1_3_0 :J1_7_0 :J1_5_0 :J1_c0_0 :J1_c1_0 :J1_c2_0" shape="68.82,16.57 68.82,6.17 67.71,5.94 67.32,5.66 67.04,5.27 66.87,4.76 66.82,4.14 56.42,4.17 56.20,5.28 55.92,5.67 55.53,5.95 55.03,6.11 54.42,6.17 54.42,16.57">
        <request index="0" response="000000000" foes="101001000" cont="0"/>
        <request index="1" response="010110000" foes="011111000" cont="1"/>
        <request index="2" response="001100000" foes="011100000" cont="0"/>
        <request index="3" response="100100011" foes="110100011" cont="0"/>
        <request index="4" response="010000000" foes="110000010" cont="1"/>
        <request index="5" response="000000000" foes="101001110" cont="0"/>
        <request index="6" response="000100011" foes="000100111" cont="0"/>
        <request index="7" response="000001100" foes="000011110" cont="0"/>
        <request index="8" response="000110001" foes="000111001" cont="0"/>
    </junction>
    <junction id="J2" type="priority" x="194.28" y="11.37" incLanes="-E2_0 -E2_1 E1_0 E1_1" intLanes=":J2_0_0 :J2_1_0" shape="199.48,6.17 189.08,6.17 189.08,16.57 192.26,16.28 194.86,15.41 196.88,13.97 198.32,11.95 199.19,9.35">
        <request index="0" response="00" foes="00" cont="0"/>
        <request index="1" response="00" foes="00" cont="0"/>
    </junction>
    <junction id="J3" type="priority" x="194.28" y="-81.35" incLanes="E2_0 E2_1 -E3_0 -E3_1" intLanes=":J3_0_0 :J3_1_0" shape="189.08,-76.16 199.48,-76.16 199.19,-79.33 198.33,-81.93 196.89,-83.95 194.87,-85.40 192.27,-86.27 189.10,-86.56">
        <request index="0" response="00" foes="00" cont="0"/>
        <request index="1" response="00" foes="00" cont="0"/>
    </junction>
    <junction id="J4" type="priority" x="61.34" y="-81.66" incLanes="-E4_0 -E4_1 E3_0 E3_1" intLanes=":J4_0_0 :J4_1_0" shape="56.16,-76.41 66.56,-76.45 66.58,-86.85 63.39,-86.56 60.77,-85.70 58.75,-84.25 57.30,-82.22 56.44,-79.61">
        <request index="0" response="00" foes="00" cont="0"/>
        <request index="1" response="00" foes="00" cont="0"/>
    </junction>

    <junction id=":J1_6_0" type="internal" x="64.83" y="12.33" incLanes=":J1_1_0 E0_1" intLanes=":J1_3_0 :J1_4_0 :J1_5_0 :J1_c0_0 :J1_c1_0"/>
    <junction id=":J1_7_0" type="internal" x="58.75" y="8.16" incLanes=":J1_4_0" intLanes=":J1_1_0 :J1_c1_0 :J1_c2_0"/>

    <connection from="-E1" to="-E0" fromLane="1" toLane="1" via=":J1_0_0" dir="s" state="M"/>
    <connection from="-E1" to="-E4" fromLane="1" toLane="1" via=":J1_1_0" dir="l" state="m"/>
    <connection from="-E2" to="-E1" fromLane="1" toLane="1" via=":J2_0_0" dir="l" state="M"/>
    <connection from="-E3" to="-E2" fromLane="1" toLane="1" via=":J3_1_0" dir="l" state="M"/>
    <connection from="-E4" to="-E3" fromLane="1" toLane="1" via=":J4_0_0" dir="l" state="M"/>
    <connection from="E0" to="-E4" fromLane="1" toLane="1" via=":J1_4_0" dir="r" state="m"/>
    <connection from="E0" to="E1" fromLane="1" toLane="1" via=":J1_5_0" dir="s" state="M"/>
    <connection from="E1" to="E2" fromLane="1" toLane="1" via=":J2_1_0" dir="r" state="M"/>
    <connection from="E2" to="E3" fromLane="1" toLane="1" via=":J3_0_0" dir="r" state="M"/>
    <connection from="E3" to="E4" fromLane="1" toLane="1" via=":J4_1_0" dir="r" state="M"/>
    <connection from="E4" to="E1" fromLane="1" toLane="1" via=":J1_2_0" dir="r" state="m"/>
    <connection from="E4" to="-E0" fromLane="1" toLane="1" via=":J1_3_0" dir="l" state="m"/>

    <connection from=":J1_0" to="-E0" fromLane="0" toLane="1" dir="s" state="M"/>
    <connection from=":J1_1" to="-E4" fromLane="0" toLane="1" via=":J1_6_0" dir="l" state="m"/>
    <connection from=":J1_6" to="-E4" fromLane="0" toLane="1" dir="l" state="m"/>
    <connection from=":J1_2" to="E1" fromLane="0" toLane="1" dir="r" state="M"/>
    <connection from=":J1_3" to="-E0" fromLane="0" toLane="1" dir="l" state="M"/>
    <connection from=":J1_4" to="-E4" fromLane="0" toLane="1" via=":J1_7_0" dir="r" state="m"/>
    <connection from=":J1_7" to="-E4" fromLane="0" toLane="1" dir="r" state="m"/>
    <connection from=":J1_5" to="E1" fromLane="0" toLane="1" dir="s" state="M"/>
    <connection from=":J2_0" to="-E1" fromLane="0" toLane="1" dir="l" state="M"/>
    <connection from=":J2_1" to="E2" fromLane="0" toLane="1" dir="r" state="M"/>
    <connection from=":J3_0" to="E3" fromLane="0" toLane="1" dir="r" state="M"/>
    <connection from=":J3_1" to="-E2" fromLane="0" toLane="1" dir="l" state="M"/>
    <connection from=":J4_0" to="-E3" fromLane="0" toLane="1" dir="l" state="M"/>
    <connection from=":J4_1" to="E4" fromLane="0" toLane="1" dir="r" state="M"/>

    <connection from=":J0_w0" to="E0" fromLane="0" toLane="0" dir="s" state="M"/>
    <connection from="-E0" to=":J0_w0" fromLane="0" toLane="0" dir="s" state="M"/>
    <connection from=":J1_c0" to=":J1_w0" fromLane="0" toLane="0" dir="s" state="M"/>
    <connection from=":J1_c1" to=":J1_w1" fromLane="0" toLane="0" dir="s" state="M"/>
    <connection from=":J1_c2" to=":J1_w2" fromLane="0" toLane="0" dir="s" state="M"/>
    <connection from=":J1_w0" to=":J1_c2" fromLane="0" toLane="0" dir="s" state="m"/>
    <connection from=":J1_w0" to="-E0" fromLane="0" toLane="0" dir="s" state="M"/>
    <connection from="-E1" to=":J1_w0" fromLane="0" toLane="0" dir="s" state="M"/>
    <connection from=":J1_w1" to=":J1_c0" fromLane="0" toLane="0" dir="s" state="m"/>
    <connection from=":J1_w1" to="E1" fromLane="0" toLane="0" dir="s" state="M"/>
    <connection from="E4" to=":J1_w1" fromLane="0" toLane="0" dir="s" state="M"/>
    <connection from=":J1_w2" to=":J1_c1" fromLane="0" toLane="0" dir="s" state="m"/>
    <connection from=":J1_w2" to="-E4" fromLane="0" toLane="0" dir="s" state="M"/>
    <connection from="E0" to=":J1_w2" fromLane="0" toLane="0" dir="s" state="M"/>
    <connection from=":J2_w0" to="-E1" fromLane="0" toLane="0" dir="s" state="M"/>
    <connection from="-E2" to=":J2_w0" fromLane="0" toLane="0" dir="s" state="M"/>
    <connection from=":J2_w1" to="E2" fromLane="0" toLane="0" dir="s" state="M"/>
    <connection from="E1" to=":J2_w1" fromLane="0" toLane="0" dir="s" state="M"/>
    <connection from=":J3_w0" to="E3" fromLane="0" toLane="0" dir="s" state="M"/>
    <connection from="E2" to=":J3_w0" fromLane="0" toLane="0" dir="s" state="M"/>
    <connection from=":J3_w1" to="-E2" fromLane="0" toLane="0" dir="s" state="M"/>
    <connection from="-E3" to=":J3_w1" fromLane="0" toLane="0" dir="s" state="M"/>
    <connection from=":J4_w0" to="-E3" fromLane="0" toLane="0" dir="s" state="M"/>
    <connection from="-E4" to=":J4_w0" fromLane="0" toLane="0" dir="s" state="M"/>
    <connection from=":J4_w1" to="E4" fromLane="0" toLane="0" dir="s" state="M"/>
    <connection from="E3" to=":J4_w1" fromLane="0" toLane="0" dir="s" state="M"/>
</net>
