<?xml version="1.0" encoding="UTF-8"?>

<!-- generated on 2026-03-15 16:09:57 by Eclipse SUMO netedit Version 1.24.0
-->

<additional xmlns:xsi="http://www.w3.org/2001/XMLSchema-instance" xsi:noNamespaceSchemaLocation="http://sumo.dlr.de/xsd/additional_file.xsd">
    <!-- Shapes -->
    <poly id="po_0" type="Terrain" color="red" fill="0" layer="0.00" shape="-219.874187,86.131537 -223.164913,-196.212794 451.434011,-200.819811 444.852558,101.268878 -219.874187,86.789682"/>
    <poly id="po_1" type="Roadside" color="154,144,144" fill="1" layer="0.00" shape="-99.284985,17.263281 39.016575,16.570040 54.441185,16.570040 68.825934,16.743351 190.489712,17.609902 194.129227,17.089971 198.115362,14.143697 198.808603,8.251150 198.635293,-78.230653 197.422121,-82.910029 194.302537,-85.509682 191.182953,-86.029613 64.493178,-86.376233 59.467182,-85.336372 56.867528,-81.870168 56.520908,-78.577273 57.040839,4.265014 66.052970,4.265014 65.533040,-77.190792 189.796471,-76.497551 189.969781,7.037978 67.092832,7.037978 65.879660,4.265014 56.694218,4.265014 54.961116,7.557909 -99.804915,5.998117 -99.284985,17.089971"/>
    <poly id="po_2" type="Residential" color="154,144,144" fill="1" layer="0.00" shape="70.970368,76.413841 69.486945,22.516142 187.171828,23.505091 186.677354,77.897264 70.475893,75.919366"/>
    <poly id="po_3" type="Wood" color="141,95,28" fill="1" layer="0.00" shape="-46.714516,-3.196522 41.301910,-3.196522 41.301910,-59.072117 -48.692413,-56.599746 -46.220041,-2.207573"/>
</additional>
